@<TRIPOS>MOLECULE
x15415
400 420 5 0 0
SMALL
NO_CHARGES

Generated from the CSD
@<TRIPOS>ATOM
      1 Si1         1.5312   21.7275    1.0594 Si        1 RES1    0.0000
      2 C1          1.7724   17.6485    2.8658 C.2       1 RES1    0.0000
      3 C2          1.7489   16.4278    2.1769 C.2       1 RES1    0.0000
      4 N3          1.6890   16.1654    0.8162 N.3       1 RES1    0.0000
      5 C4          1.6104   17.0415   -0.2460 C.2       1 RES1    0.0000
      6 H4A         1.5998   17.9797   -0.0889 H         1 RES1    0.0000
      7 C5          1.5492   16.5712   -1.5022 C.2       1 RES1    0.0000
      8 H5A         1.4906   17.1779   -2.2302 H         1 RES1    0.0000
      9 C6          1.5712   15.1689   -1.7518 C.2       1 RES1    0.0000
     10 H6A         1.5400   14.8446   -2.6440 H         1 RES1    0.0000
     11 C7          1.6369   14.2961   -0.7095 C.2       1 RES1    0.0000
     12 H7A         1.6444   13.3621   -0.8780 H         1 RES1    0.0000
     13 C8          1.6927   14.7686    0.6249 C.2       1 RES1    0.0000
     14 C9          1.7528   14.1511    1.8456 C.2       1 RES1    0.0000
     15 H9A         1.7660   13.2148    1.9977 H         1 RES1    0.0000
     16 C10         1.7929   15.1564    2.8402 C.2       1 RES1    0.0000
     17 C11         1.7125   18.9360    2.2423 C.1       1 RES1    0.0000
     18 C12         1.6546   20.0369    1.7681 C.1       1 RES1    0.0000
     19 C13         2.3110   22.9066    2.2729 C.3       1 RES1    0.0000
     20 H13A        3.2718   22.6857    2.3653 H         1 RES1    0.0000
     21 H13B        2.2455   23.8279    1.9153 H         1 RES1    0.0000
     22 C14         1.6529   22.8615    3.6578 C.3       1 RES1    0.0000
     23 H14A        2.1084   23.4908    4.2564 H         1 RES1    0.0000
     24 H14B        1.7214   21.9559    4.0225 H         1 RES1    0.0000
     25 H14C        0.7089   23.1112    3.5789 H         1 RES1    0.0000
     26 C15        -0.2642   22.1431    0.8027 C.3       1 RES1    0.0000
     27 H15A       -0.6338   21.5370    0.1130 H         1 RES1    0.0000
     28 H15B       -0.7527   21.9723    1.6458 H         1 RES1    0.0000
     29 C16        -0.5228   23.5860    0.3740 C.3       1 RES1    0.0000
     30 H16A       -1.4878   23.7330    0.2886 H         1 RES1    0.0000
     31 H16B       -0.0886   23.7526   -0.4891 H         1 RES1    0.0000
     32 H16C       -0.1570   24.1977    1.0472 H         1 RES1    0.0000
     33 C17         2.4593   21.7923   -0.5773 C.3       1 RES1    0.0000
     34 H17A        2.3971   22.7054   -0.9491 H         1 RES1    0.0000
     35 H17B        3.4131   21.5894   -0.4173 H         1 RES1    0.0000
     36 C18         1.9087   20.8135   -1.5811 C.2       1 RES1    0.0000
     37 H18         2.1146   19.8942   -1.4617 H         1 RES1    0.0000
     38 C19         1.1641   21.1443   -2.6127 C.2       1 RES1    0.0000
     39 H19A        0.9392   22.0574   -2.7627 H         1 RES1    0.0000
     40 H19B        0.8510   20.4734   -3.2085 H         1 RES1    0.0000
     41 Si1         2.1026   10.9986    6.0500 Si        1 RES1    0.0000
     42 C1          1.8614   15.0776    4.2436 C.2       1 RES1    0.0000
     43 C2          1.8849   16.2983    4.9325 C.2       1 RES1    0.0000
     44 N3          1.9448   16.5607    6.2932 N.3       1 RES1    0.0000
     45 C4          2.0234   15.6846    7.3554 C.2       1 RES1    0.0000
     46 H4A         2.0340   14.7464    7.1983 H         1 RES1    0.0000
     47 C5          2.0845   16.1549    8.6116 C.2       1 RES1    0.0000
     48 H5A         2.1431   15.5482    9.3396 H         1 RES1    0.0000
     49 C6          2.0626   17.5572    8.8611 C.2       1 RES1    0.0000
     50 H6A         2.0938   17.8815    9.7534 H         1 RES1    0.0000
     51 C7          1.9968   18.4300    7.8189 C.2       1 RES1    0.0000
     52 H7A         1.9894   19.3640    7.9874 H         1 RES1    0.0000
     53 C8          1.9411   17.9575    6.4845 C.2       1 RES1    0.0000
     54 C9          1.8810   18.5750    5.2638 C.2       1 RES1    0.0000
     55 H9A         1.8678   19.5113    5.1117 H         1 RES1    0.0000
     56 C10         1.8409   17.5697    4.2692 C.2       1 RES1    0.0000
     57 C11         1.9213   13.7901    4.8671 C.1       1 RES1    0.0000
     58 C12         1.9792   12.6892    5.3413 C.1       1 RES1    0.0000
     59 C13         1.3228    9.8195    4.8365 C.3       1 RES1    0.0000
     60 H13A        0.3620   10.0404    4.7441 H         1 RES1    0.0000
     61 H13B        1.3883    8.8982    5.1941 H         1 RES1    0.0000
     62 C14         1.9809    9.8646    3.4516 C.3       1 RES1    0.0000
     63 H14A        1.5254    9.2353    2.8530 H         1 RES1    0.0000
     64 H14B        1.9124   10.7702    3.0869 H         1 RES1    0.0000
     65 H14C        2.9249    9.6149    3.5305 H         1 RES1    0.0000
     66 C15         3.8980   10.5830    6.3067 C.3       1 RES1    0.0000
     67 H15A        4.2676   11.1891    6.9963 H         1 RES1    0.0000
     68 H15B        4.3864   10.7538    5.4636 H         1 RES1    0.0000
     69 C16         4.1566    9.1401    6.7354 C.3       1 RES1    0.0000
     70 H16A        5.1216    8.9931    6.8207 H         1 RES1    0.0000
     71 H16B        3.7224    8.9735    7.5985 H         1 RES1    0.0000
     72 H16C        3.7908    8.5284    6.0622 H         1 RES1    0.0000
     73 C17         1.1745   10.9338    7.6867 C.3       1 RES1    0.0000
     74 H17A        1.2367   10.0207    8.0585 H         1 RES1    0.0000
     75 H17B        0.2207   11.1367    7.5267 H         1 RES1    0.0000
     76 C18         1.7251   11.9126    8.6905 C.2       1 RES1    0.0000
     77 H18         1.5191   12.8319    8.5711 H         1 RES1    0.0000
     78 C19         2.4697   11.5818    9.7221 C.2       1 RES1    0.0000
     79 H19A        2.6946   10.6687    9.8721 H         1 RES1    0.0000
     80 H19B        2.7828   12.2527   10.3179 H         1 RES1    0.0000
     81 Si1         3.5788    5.3645    2.4953 Si        2 RES2    0.0000
     82 C1          3.3377    1.2855    0.6889 C.2       2 RES2    0.0000
     83 C2          3.3611    0.0648    1.3778 C.2       2 RES2    0.0000
     84 N3          3.4211   -0.1977    2.7385 N.3       2 RES2    0.0000
     85 C4          3.4996    0.6784    3.8007 C.2       2 RES2    0.0000
     86 H4A         3.5102    1.6167    3.6436 H         2 RES2    0.0000
     87 C5          3.5608    0.2081    5.0569 C.2       2 RES2    0.0000
     88 H5A         3.6194    0.8149    5.7849 H         2 RES2    0.0000
     89 C6          3.5388   -1.1942    5.3064 C.2       2 RES2    0.0000
     90 H6A         3.5701   -1.5185    6.1987 H         2 RES2    0.0000
     91 C7          3.4731   -2.0670    4.2642 C.2       2 RES2    0.0000
     92 H7A         3.4657   -3.0010    4.4327 H         2 RES2    0.0000
     93 C8          3.4174   -1.5944    2.9298 C.2       2 RES2    0.0000
     94 C9          3.3573   -2.2120    1.7091 C.2       2 RES2    0.0000
     95 H9A         3.3440   -3.1483    1.5570 H         2 RES2    0.0000
     96 C10         3.3172   -1.2066    0.7145 C.2       2 RES2    0.0000
     97 C11         3.3975    2.5729    1.3124 C.1       2 RES2    0.0000
     98 C12         3.4555    3.6738    1.7866 C.1       2 RES2    0.0000
     99 C13         2.7990    6.5436    1.2818 C.3       2 RES2    0.0000
    100 H13A        1.8383    6.3227    1.1894 H         2 RES2    0.0000
    101 H13B        2.8646    7.4648    1.6394 H         2 RES2    0.0000
    102 C14         3.4571    6.4984   -0.1031 C.3       2 RES2    0.0000
    103 H14A        3.0017    7.1277   -0.7017 H         2 RES2    0.0000
    104 H14B        3.3886    5.5929   -0.4678 H         2 RES2    0.0000
    105 H14C        4.4011    6.7481   -0.0242 H         2 RES2    0.0000
    106 C15         5.3742    5.7801    2.7520 C.3       2 RES2    0.0000
    107 H15A        5.7438    5.1740    3.4417 H         2 RES2    0.0000
    108 H15B        5.8627    5.6093    1.9089 H         2 RES2    0.0000
    109 C16         5.6329    7.2230    3.1807 C.3       2 RES2    0.0000
    110 H16A        6.5979    7.3699    3.2661 H         2 RES2    0.0000
    111 H16B        5.1987    7.3896    4.0438 H         2 RES2    0.0000
    112 H16C        5.2670    7.8346    2.5075 H         2 RES2    0.0000
    113 C17         2.6507    5.4293    4.1320 C.3       2 RES2    0.0000
    114 H17A        2.7130    6.3423    4.5038 H         2 RES2    0.0000
    115 H17B        1.6969    5.2264    3.9720 H         2 RES2    0.0000
    116 C18         3.2013    4.4504    5.1358 C.2       2 RES2    0.0000
    117 H18         2.9954    3.5311    5.0164 H         2 RES2    0.0000
    118 C19         3.9460    4.7813    6.1674 C.2       2 RES2    0.0000
    119 H19A        4.1708    5.6943    6.3174 H         2 RES2    0.0000
    120 H19B        4.2590    4.1104    6.7632 H         2 RES2    0.0000
    121 Si1         3.0075   -5.3645   -2.4953 Si        2 RES2    0.0000
    122 C1          3.2486   -1.2855   -0.6889 C.2       2 RES2    0.0000
    123 C2          3.2252   -0.0648   -1.3778 C.2       2 RES2    0.0000
    124 N3          3.1652    0.1977   -2.7385 N.3       2 RES2    0.0000
    125 C4          3.0867   -0.6784   -3.8007 C.2       2 RES2    0.0000
    126 H4A         3.0761   -1.6167   -3.6436 H         2 RES2    0.0000
    127 C5          3.0255   -0.2081   -5.0569 C.2       2 RES2    0.0000
    128 H5A         2.9669   -0.8149   -5.7849 H         2 RES2    0.0000
    129 C6          3.0475    1.1942   -5.3064 C.2       2 RES2    0.0000
    130 H6A         3.0162    1.5185   -6.1987 H         2 RES2    0.0000
    131 C7          3.1132    2.0670   -4.2642 C.2       2 RES2    0.0000
    132 H7A         3.1206    3.0010   -4.4327 H         2 RES2    0.0000
    133 C8          3.1689    1.5944   -2.9298 C.2       2 RES2    0.0000
    134 C9          3.2290    2.2120   -1.7091 C.2       2 RES2    0.0000
    135 H9A         3.2423    3.1483   -1.5570 H         2 RES2    0.0000
    136 C10         3.2691    1.2066   -0.7145 C.2       2 RES2    0.0000
    137 C11         3.1888   -2.5729   -1.3124 C.1       2 RES2    0.0000
    138 C12         3.1308   -3.6738   -1.7866 C.1       2 RES2    0.0000
    139 C13         3.7873   -6.5436   -1.2818 C.3       2 RES2    0.0000
    140 H13A        4.7480   -6.3227   -1.1894 H         2 RES2    0.0000
    141 H13B        3.7217   -7.4648   -1.6394 H         2 RES2    0.0000
    142 C14         3.1292   -6.4984    0.1031 C.3       2 RES2    0.0000
    143 H14A        3.5846   -7.1277    0.7017 H         2 RES2    0.0000
    144 H14B        3.1977   -5.5929    0.4678 H         2 RES2    0.0000
    145 H14C        2.1852   -6.7481    0.0242 H         2 RES2    0.0000
    146 C15         1.2121   -5.7801   -2.7520 C.3       2 RES2    0.0000
    147 H15A        0.8425   -5.1740   -3.4417 H         2 RES2    0.0000
    148 H15B        0.7236   -5.6093   -1.9089 H         2 RES2    0.0000
    149 C16         0.9534   -7.2230   -3.1807 C.3       2 RES2    0.0000
    150 H16A       -0.0116   -7.3699   -3.2661 H         2 RES2    0.0000
    151 H16B        1.3876   -7.3896   -4.0438 H         2 RES2    0.0000
    152 H16C        1.3193   -7.8346   -2.5075 H         2 RES2    0.0000
    153 C17         3.9356   -5.4293   -4.1320 C.3       2 RES2    0.0000
    154 H17A        3.8733   -6.3423   -4.5038 H         2 RES2    0.0000
    155 H17B        4.8894   -5.2264   -3.9720 H         2 RES2    0.0000
    156 C18         3.3850   -4.4504   -5.1358 C.2       2 RES2    0.0000
    157 H18         3.5909   -3.5311   -5.0164 H         2 RES2    0.0000
    158 C19         2.6403   -4.7813   -6.1674 C.2       2 RES2    0.0000
    159 H19A        2.4155   -5.6943   -6.3174 H         2 RES2    0.0000
    160 H19B        2.3273   -4.1104   -6.7632 H         2 RES2    0.0000
    161 Si1         0.6263    5.3645    9.6047 Si        3 RES3    0.0000
    162 C1          0.3852    1.2855    7.7983 C.2       3 RES3    0.0000
    163 C2          0.4086    0.0648    8.4872 C.2       3 RES3    0.0000
    164 N3          0.4686   -0.1977    9.8479 N.3       3 RES3    0.0000
    165 C4          0.5471    0.6784   10.9101 C.2       3 RES3    0.0000
    166 H4A         0.5577    1.6167   10.7530 H         3 RES3    0.0000
    167 C5          0.6083    0.2081   12.1663 C.2       3 RES3    0.0000
    168 H5A         0.6669    0.8149   12.8943 H         3 RES3    0.0000
    169 C6          0.5863   -1.1942   12.4158 C.2       3 RES3    0.0000
    170 H6A         0.6176   -1.5185   13.3081 H         3 RES3    0.0000
    171 C7          0.5206   -2.0670   11.3736 C.2       3 RES3    0.0000
    172 H7A         0.5132   -3.0010   11.5421 H         3 RES3    0.0000
    173 C8          0.4649   -1.5944   10.0392 C.2       3 RES3    0.0000
    174 C9          0.4047   -2.2120    8.8185 C.2       3 RES3    0.0000
    175 H9A         0.3915   -3.1483    8.6663 H         3 RES3    0.0000
    176 C10         0.3647   -1.2066    7.8239 C.2       3 RES3    0.0000
    177 C11         0.4450    2.5729    8.4218 C.1       3 RES3    0.0000
    178 C12         0.5030    3.6738    8.8960 C.1       3 RES3    0.0000
    179 C13        -0.1535    6.5436    8.3912 C.3       3 RES3    0.0000
    180 H13A       -1.1143    6.3227    8.2988 H         3 RES3    0.0000
    181 H13B       -0.0880    7.4648    8.7488 H         3 RES3    0.0000
    182 C14         0.5046    6.4984    7.0063 C.3       3 RES3    0.0000
    183 H14A        0.0492    7.1277    6.4077 H         3 RES3    0.0000
    184 H14B        0.4361    5.5929    6.6416 H         3 RES3    0.0000
    185 H14C        1.4486    6.7481    7.0852 H         3 RES3    0.0000
    186 C15         2.4217    5.7801    9.8614 C.3       3 RES3    0.0000
    187 H15A        2.7913    5.1740   10.5510 H         3 RES3    0.0000
    188 H15B        2.9102    5.6093    9.0183 H         3 RES3    0.0000
    189 C16         2.6803    7.2230   10.2901 C.3       3 RES3    0.0000
    190 H16A        3.6454    7.3699   10.3754 H         3 RES3    0.0000
    191 H16B        2.2462    7.3896   11.1532 H         3 RES3    0.0000
    192 H16C        2.3145    7.8346    9.6169 H         3 RES3    0.0000
    193 C17        -0.3018    5.4293   11.2414 C.3       3 RES3    0.0000
    194 H17A       -0.2395    6.3423   11.6132 H         3 RES3    0.0000
    195 H17B       -1.2556    5.2264   11.0814 H         3 RES3    0.0000
    196 C18         0.2488    4.4504   12.2452 C.2       3 RES3    0.0000
    197 H18         0.0429    3.5311   12.1258 H         3 RES3    0.0000
    198 C19         0.9934    4.7813   13.2768 C.2       3 RES3    0.0000
    199 H19A        1.2183    5.6943   13.4268 H         3 RES3    0.0000
    200 H19B        1.3065    4.1104   13.8726 H         3 RES3    0.0000
    201 Si1         0.0549   -5.3645    4.6141 Si        3 RES3    0.0000
    202 C1          0.2961   -1.2855    6.4205 C.2       3 RES3    0.0000
    203 C2          0.2726   -0.0648    5.7316 C.2       3 RES3    0.0000
    204 N3          0.2127    0.1977    4.3709 N.3       3 RES3    0.0000
    205 C4          0.1342   -0.6784    3.3087 C.2       3 RES3    0.0000
    206 H4A         0.1236   -1.6167    3.4658 H         3 RES3    0.0000
    207 C5          0.0730   -0.2081    2.0525 C.2       3 RES3    0.0000
    208 H5A         0.0144   -0.8149    1.3245 H         3 RES3    0.0000
    209 C6          0.0949    1.1942    1.8029 C.2       3 RES3    0.0000
    210 H6A         0.0637    1.5185    0.9107 H         3 RES3    0.0000
    211 C7          0.1607    2.0670    2.8452 C.2       3 RES3    0.0000
    212 H7A         0.1681    3.0010    2.6767 H         3 RES3    0.0000
    213 C8          0.2164    1.5944    4.1796 C.2       3 RES3    0.0000
    214 C9          0.2765    2.2120    5.4003 C.2       3 RES3    0.0000
    215 H9A         0.2897    3.1483    5.5524 H         3 RES3    0.0000
    216 C10         0.3166    1.2066    6.3949 C.2       3 RES3    0.0000
    217 C11         0.2363   -2.5729    5.7970 C.1       3 RES3    0.0000
    218 C12         0.1783   -3.6738    5.3228 C.1       3 RES3    0.0000
    219 C13         0.8348   -6.5436    5.8276 C.3       3 RES3    0.0000
    220 H13A        1.7955   -6.3227    5.9200 H         3 RES3    0.0000
    221 H13B        0.7692   -7.4648    5.4700 H         3 RES3    0.0000
    222 C14         0.1766   -6.4984    7.2125 C.3       3 RES3    0.0000
    223 H14A        0.6321   -7.1277    7.8111 H         3 RES3    0.0000
    224 H14B        0.2452   -5.5929    7.5772 H         3 RES3    0.0000
    225 H14C       -0.7673   -6.7481    7.1336 H         3 RES3    0.0000
    226 C15        -1.7404   -5.7801    4.3573 C.3       3 RES3    0.0000
    227 H15A       -2.1100   -5.1740    3.6677 H         3 RES3    0.0000
    228 H15B       -2.2289   -5.6093    5.2005 H         3 RES3    0.0000
    229 C16        -1.9991   -7.2230    3.9286 C.3       3 RES3    0.0000
    230 H16A       -2.9641   -7.3699    3.8433 H         3 RES3    0.0000
    231 H16B       -1.5649   -7.3896    3.0656 H         3 RES3    0.0000
    232 H16C       -1.6332   -7.8346    4.6019 H         3 RES3    0.0000
    233 C17         0.9831   -5.4293    2.9774 C.3       3 RES3    0.0000
    234 H17A        0.9208   -6.3423    2.6056 H         3 RES3    0.0000
    235 H17B        1.9369   -5.2264    3.1374 H         3 RES3    0.0000
    236 C18         0.4324   -4.4504    1.9736 C.2       3 RES3    0.0000
    237 H18         0.6384   -3.5311    2.0930 H         3 RES3    0.0000
    238 C19        -0.3122   -4.7813    0.9420 C.2       3 RES3    0.0000
    239 H19A       -0.5370   -5.6943    0.7920 H         3 RES3    0.0000
    240 H19B       -0.6252   -4.1104    0.3462 H         3 RES3    0.0000
    241 Si1         3.5788   38.0906    2.4953 Si        4 RES4    0.0000
    242 C1          3.3377   34.0116    0.6889 C.2       4 RES4    0.0000
    243 C2          3.3611   32.7909    1.3778 C.2       4 RES4    0.0000
    244 N3          3.4211   32.5284    2.7385 N.3       4 RES4    0.0000
    245 C4          3.4996   33.4045    3.8007 C.2       4 RES4    0.0000
    246 H4A         3.5102   34.3428    3.6436 H         4 RES4    0.0000
    247 C5          3.5608   32.9342    5.0569 C.2       4 RES4    0.0000
    248 H5A         3.6194   33.5410    5.7849 H         4 RES4    0.0000
    249 C6          3.5388   31.5319    5.3064 C.2       4 RES4    0.0000
    250 H6A         3.5701   31.2076    6.1987 H         4 RES4    0.0000
    251 C7          3.4731   30.6591    4.2642 C.2       4 RES4    0.0000
    252 H7A         3.4657   29.7251    4.4327 H         4 RES4    0.0000
    253 C8          3.4174   31.1317    2.9298 C.2       4 RES4    0.0000
    254 C9          3.3573   30.5141    1.7091 C.2       4 RES4    0.0000
    255 H9A         3.3440   29.5778    1.5570 H         4 RES4    0.0000
    256 C10         3.3172   31.5195    0.7145 C.2       4 RES4    0.0000
    257 C11         3.3975   35.2990    1.3124 C.1       4 RES4    0.0000
    258 C12         3.4555   36.3999    1.7866 C.1       4 RES4    0.0000
    259 C13         2.7990   39.2697    1.2818 C.3       4 RES4    0.0000
    260 H13A        1.8383   39.0488    1.1894 H         4 RES4    0.0000
    261 H13B        2.8646   40.1909    1.6394 H         4 RES4    0.0000
    262 C14         3.4571   39.2245   -0.1031 C.3       4 RES4    0.0000
    263 H14A        3.0017   39.8538   -0.7017 H         4 RES4    0.0000
    264 H14B        3.3886   38.3190   -0.4678 H         4 RES4    0.0000
    265 H14C        4.4011   39.4742   -0.0242 H         4 RES4    0.0000
    266 C15         5.3742   38.5062    2.7520 C.3       4 RES4    0.0000
    267 H15A        5.7438   37.9001    3.4417 H         4 RES4    0.0000
    268 H15B        5.8627   38.3354    1.9089 H         4 RES4    0.0000
    269 C16         5.6329   39.9491    3.1807 C.3       4 RES4    0.0000
    270 H16A        6.5979   40.0960    3.2661 H         4 RES4    0.0000
    271 H16B        5.1987   40.1157    4.0438 H         4 RES4    0.0000
    272 H16C        5.2670   40.5607    2.5075 H         4 RES4    0.0000
    273 C17         2.6507   38.1554    4.1320 C.3       4 RES4    0.0000
    274 H17A        2.7130   39.0684    4.5038 H         4 RES4    0.0000
    275 H17B        1.6969   37.9525    3.9720 H         4 RES4    0.0000
    276 C18         3.2013   37.1765    5.1358 C.2       4 RES4    0.0000
    277 H18         2.9954   36.2572    5.0164 H         4 RES4    0.0000
    278 C19         3.9460   37.5074    6.1674 C.2       4 RES4    0.0000
    279 H19A        4.1708   38.4204    6.3174 H         4 RES4    0.0000
    280 H19B        4.2590   36.8365    6.7632 H         4 RES4    0.0000
    281 Si1         3.0075   27.3616   -2.4953 Si        4 RES4    0.0000
    282 C1          3.2486   31.4406   -0.6889 C.2       4 RES4    0.0000
    283 C2          3.2252   32.6613   -1.3778 C.2       4 RES4    0.0000
    284 N3          3.1652   32.9238   -2.7385 N.3       4 RES4    0.0000
    285 C4          3.0867   32.0477   -3.8007 C.2       4 RES4    0.0000
    286 H4A         3.0761   31.1094   -3.6436 H         4 RES4    0.0000
    287 C5          3.0255   32.5180   -5.0569 C.2       4 RES4    0.0000
    288 H5A         2.9669   31.9112   -5.7849 H         4 RES4    0.0000
    289 C6          3.0475   33.9203   -5.3064 C.2       4 RES4    0.0000
    290 H6A         3.0162   34.2446   -6.1987 H         4 RES4    0.0000
    291 C7          3.1132   34.7931   -4.2642 C.2       4 RES4    0.0000
    292 H7A         3.1206   35.7271   -4.4327 H         4 RES4    0.0000
    293 C8          3.1689   34.3205   -2.9298 C.2       4 RES4    0.0000
    294 C9          3.2290   34.9381   -1.7091 C.2       4 RES4    0.0000
    295 H9A         3.2423   35.8744   -1.5570 H         4 RES4    0.0000
    296 C10         3.2691   33.9327   -0.7145 C.2       4 RES4    0.0000
    297 C11         3.1888   30.1532   -1.3124 C.1       4 RES4    0.0000
    298 C12         3.1308   29.0523   -1.7866 C.1       4 RES4    0.0000
    299 C13         3.7873   26.1825   -1.2818 C.3       4 RES4    0.0000
    300 H13A        4.7480   26.4034   -1.1894 H         4 RES4    0.0000
    301 H13B        3.7217   25.2613   -1.6394 H         4 RES4    0.0000
    302 C14         3.1292   26.2277    0.1031 C.3       4 RES4    0.0000
    303 H14A        3.5846   25.5984    0.7017 H         4 RES4    0.0000
    304 H14B        3.1977   27.1332    0.4678 H         4 RES4    0.0000
    305 H14C        2.1852   25.9780    0.0242 H         4 RES4    0.0000
    306 C15         1.2121   26.9460   -2.7520 C.3       4 RES4    0.0000
    307 H15A        0.8425   27.5521   -3.4417 H         4 RES4    0.0000
    308 H15B        0.7236   27.1168   -1.9089 H         4 RES4    0.0000
    309 C16         0.9534   25.5031   -3.1807 C.3       4 RES4    0.0000
    310 H16A       -0.0116   25.3562   -3.2661 H         4 RES4    0.0000
    311 H16B        1.3876   25.3365   -4.0438 H         4 RES4    0.0000
    312 H16C        1.3193   24.8915   -2.5075 H         4 RES4    0.0000
    313 C17         3.9356   27.2968   -4.1320 C.3       4 RES4    0.0000
    314 H17A        3.8733   26.3838   -4.5038 H         4 RES4    0.0000
    315 H17B        4.8894   27.4997   -3.9720 H         4 RES4    0.0000
    316 C18         3.3850   28.2757   -5.1358 C.2       4 RES4    0.0000
    317 H18         3.5909   29.1950   -5.0164 H         4 RES4    0.0000
    318 C19         2.6403   27.9448   -6.1674 C.2       4 RES4    0.0000
    319 H19A        2.4155   27.0318   -6.3174 H         4 RES4    0.0000
    320 H19B        2.3273   28.6157   -6.7632 H         4 RES4    0.0000
    321 Si1         0.6263   38.0906    9.6047 Si        5 RES5    0.0000
    322 C1          0.3852   34.0116    7.7983 C.2       5 RES5    0.0000
    323 C2          0.4086   32.7909    8.4872 C.2       5 RES5    0.0000
    324 N3          0.4686   32.5284    9.8479 N.3       5 RES5    0.0000
    325 C4          0.5471   33.4045   10.9101 C.2       5 RES5    0.0000
    326 H4A         0.5577   34.3428   10.7530 H         5 RES5    0.0000
    327 C5          0.6083   32.9342   12.1663 C.2       5 RES5    0.0000
    328 H5A         0.6669   33.5410   12.8943 H         5 RES5    0.0000
    329 C6          0.5863   31.5319   12.4158 C.2       5 RES5    0.0000
    330 H6A         0.6176   31.2076   13.3081 H         5 RES5    0.0000
    331 C7          0.5206   30.6591   11.3736 C.2       5 RES5    0.0000
    332 H7A         0.5132   29.7251   11.5421 H         5 RES5    0.0000
    333 C8          0.4649   31.1317   10.0392 C.2       5 RES5    0.0000
    334 C9          0.4047   30.5141    8.8185 C.2       5 RES5    0.0000
    335 H9A         0.3915   29.5778    8.6663 H         5 RES5    0.0000
    336 C10         0.3647   31.5195    7.8239 C.2       5 RES5    0.0000
    337 C11         0.4450   35.2990    8.4218 C.1       5 RES5    0.0000
    338 C12         0.5030   36.3999    8.8960 C.1       5 RES5    0.0000
    339 C13        -0.1535   39.2697    8.3912 C.3       5 RES5    0.0000
    340 H13A       -1.1143   39.0488    8.2988 H         5 RES5    0.0000
    341 H13B       -0.0880   40.1909    8.7488 H         5 RES5    0.0000
    342 C14         0.5046   39.2245    7.0063 C.3       5 RES5    0.0000
    343 H14A        0.0492   39.8538    6.4077 H         5 RES5    0.0000
    344 H14B        0.4361   38.3190    6.6416 H         5 RES5    0.0000
    345 H14C        1.4486   39.4742    7.0852 H         5 RES5    0.0000
    346 C15         2.4217   38.5062    9.8614 C.3       5 RES5    0.0000
    347 H15A        2.7913   37.9001   10.5510 H         5 RES5    0.0000
    348 H15B        2.9102   38.3354    9.0183 H         5 RES5    0.0000
    349 C16         2.6803   39.9491   10.2901 C.3       5 RES5    0.0000
    350 H16A        3.6454   40.0960   10.3754 H         5 RES5    0.0000
    351 H16B        2.2462   40.1157   11.1532 H         5 RES5    0.0000
    352 H16C        2.3145   40.5607    9.6169 H         5 RES5    0.0000
    353 C17        -0.3018   38.1554   11.2414 C.3       5 RES5    0.0000
    354 H17A       -0.2395   39.0684   11.6132 H         5 RES5    0.0000
    355 H17B       -1.2556   37.9525   11.0814 H         5 RES5    0.0000
    356 C18         0.2488   37.1765   12.2452 C.2       5 RES5    0.0000
    357 H18         0.0429   36.2572   12.1258 H         5 RES5    0.0000
    358 C19         0.9934   37.5074   13.2768 C.2       5 RES5    0.0000
    359 H19A        1.2183   38.4204   13.4268 H         5 RES5    0.0000
    360 H19B        1.3065   36.8365   13.8726 H         5 RES5    0.0000
    361 Si1         0.0549   27.3616    4.6141 Si        5 RES5    0.0000
    362 C1          0.2961   31.4406    6.4205 C.2       5 RES5    0.0000
    363 C2          0.2726   32.6613    5.7316 C.2       5 RES5    0.0000
    364 N3          0.2127   32.9238    4.3709 N.3       5 RES5    0.0000
    365 C4          0.1342   32.0477    3.3087 C.2       5 RES5    0.0000
    366 H4A         0.1236   31.1094    3.4658 H         5 RES5    0.0000
    367 C5          0.0730   32.5180    2.0525 C.2       5 RES5    0.0000
    368 H5A         0.0144   31.9112    1.3245 H         5 RES5    0.0000
    369 C6          0.0949   33.9203    1.8029 C.2       5 RES5    0.0000
    370 H6A         0.0637   34.2446    0.9107 H         5 RES5    0.0000
    371 C7          0.1607   34.7931    2.8452 C.2       5 RES5    0.0000
    372 H7A         0.1681   35.7271    2.6767 H         5 RES5    0.0000
    373 C8          0.2164   34.3205    4.1796 C.2       5 RES5    0.0000
    374 C9          0.2765   34.9381    5.4003 C.2       5 RES5    0.0000
    375 H9A         0.2897   35.8744    5.5524 H         5 RES5    0.0000
    376 C10         0.3166   33.9327    6.3949 C.2       5 RES5    0.0000
    377 C11         0.2363   30.1532    5.7970 C.1       5 RES5    0.0000
    378 C12         0.1783   29.0523    5.3228 C.1       5 RES5    0.0000
    379 C13         0.8348   26.1825    5.8276 C.3       5 RES5    0.0000
    380 H13A        1.7955   26.4034    5.9200 H         5 RES5    0.0000
    381 H13B        0.7692   25.2613    5.4700 H         5 RES5    0.0000
    382 C14         0.1766   26.2277    7.2125 C.3       5 RES5    0.0000
    383 H14A        0.6321   25.5984    7.8111 H         5 RES5    0.0000
    384 H14B        0.2452   27.1332    7.5772 H         5 RES5    0.0000
    385 H14C       -0.7673   25.9780    7.1336 H         5 RES5    0.0000
    386 C15        -1.7404   26.9460    4.3573 C.3       5 RES5    0.0000
    387 H15A       -2.1100   27.5521    3.6677 H         5 RES5    0.0000
    388 H15B       -2.2289   27.1168    5.2005 H         5 RES5    0.0000
    389 C16        -1.9991   25.5031    3.9286 C.3       5 RES5    0.0000
    390 H16A       -2.9641   25.3562    3.8433 H         5 RES5    0.0000
    391 H16B       -1.5649   25.3365    3.0656 H         5 RES5    0.0000
    392 H16C       -1.6332   24.8915    4.6019 H         5 RES5    0.0000
    393 C17         0.9831   27.2968    2.9774 C.3       5 RES5    0.0000
    394 H17A        0.9208   26.3838    2.6056 H         5 RES5    0.0000
    395 H17B        1.9369   27.4997    3.1374 H         5 RES5    0.0000
    396 C18         0.4324   28.2757    1.9736 C.2       5 RES5    0.0000
    397 H18         0.6384   29.1950    2.0930 H         5 RES5    0.0000
    398 C19        -0.3122   27.9448    0.9420 C.2       5 RES5    0.0000
    399 H19A       -0.5370   27.0318    0.7920 H         5 RES5    0.0000
    400 H19B       -0.6252   28.6157    0.3462 H         5 RES5    0.0000
@<TRIPOS>BOND
     1    1   18 1
     2    1   19 1
     3    1   26 1
     4    1   33 1
     5    2    3 ar
     6    2   17 1
     7    2   56 ar
     8    3    4 ar
     9    3   16 ar
    10    4    5 1
    11    4   13 ar
    12    5    6 1
    13    5    7 2
    14    7    8 1
    15    7    9 2
    16    9   10 1
    17    9   11 2
    18   11   12 1
    19   11   13 1
    20   13   14 ar
    21   14   15 1
    22   14   16 ar
    23   16   42 ar
    24   17   18 3
    25   19   20 1
    26   19   21 1
    27   19   22 1
    28   22   23 1
    29   22   24 1
    30   22   25 1
    31   26   27 1
    32   26   28 1
    33   26   29 1
    34   29   30 1
    35   29   31 1
    36   29   32 1
    37   33   34 1
    38   33   35 1
    39   33   36 1
    40   36   37 1
    41   36   38 2
    42   38   39 1
    43   38   40 1
    44   41   58 1
    45   41   59 1
    46   41   66 1
    47   41   73 1
    48   42   43 ar
    49   42   57 1
    50   43   44 ar
    51   43   56 ar
    52   44   45 1
    53   44   53 ar
    54   45   46 1
    55   45   47 2
    56   47   48 1
    57   47   49 2
    58   49   50 1
    59   49   51 2
    60   51   52 1
    61   51   53 1
    62   53   54 ar
    63   54   55 1
    64   54   56 ar
    65   57   58 3
    66   59   60 1
    67   59   61 1
    68   59   62 1
    69   62   63 1
    70   62   64 1
    71   62   65 1
    72   66   67 1
    73   66   68 1
    74   66   69 1
    75   69   70 1
    76   69   71 1
    77   69   72 1
    78   73   74 1
    79   73   75 1
    80   73   76 1
    81   76   77 1
    82   76   78 2
    83   78   79 1
    84   78   80 1
    85   81   98 1
    86   81   99 1
    87   81  106 1
    88   81  113 1
    89   82   83 ar
    90   82   97 1
    91   82  136 ar
    92   83   84 ar
    93   83   96 ar
    94   84   85 1
    95   84   93 ar
    96   85   86 1
    97   85   87 2
    98   87   88 1
    99   87   89 2
   100   89   90 1
   101   89   91 2
   102   91   92 1
   103   91   93 1
   104   93   94 ar
   105   94   95 1
   106   94   96 ar
   107   96  122 ar
   108   97   98 3
   109   99  100 1
   110   99  101 1
   111   99  102 1
   112  102  103 1
   113  102  104 1
   114  102  105 1
   115  106  107 1
   116  106  108 1
   117  106  109 1
   118  109  110 1
   119  109  111 1
   120  109  112 1
   121  113  114 1
   122  113  115 1
   123  113  116 1
   124  116  117 1
   125  116  118 2
   126  118  119 1
   127  118  120 1
   128  121  138 1
   129  121  139 1
   130  121  146 1
   131  121  153 1
   132  122  123 ar
   133  122  137 1
   134  123  124 ar
   135  123  136 ar
   136  124  125 1
   137  124  133 ar
   138  125  126 1
   139  125  127 2
   140  127  128 1
   141  127  129 2
   142  129  130 1
   143  129  131 2
   144  131  132 1
   145  131  133 1
   146  133  134 ar
   147  134  135 1
   148  134  136 ar
   149  137  138 3
   150  139  140 1
   151  139  141 1
   152  139  142 1
   153  142  143 1
   154  142  144 1
   155  142  145 1
   156  146  147 1
   157  146  148 1
   158  146  149 1
   159  149  150 1
   160  149  151 1
   161  149  152 1
   162  153  154 1
   163  153  155 1
   164  153  156 1
   165  156  157 1
   166  156  158 2
   167  158  159 1
   168  158  160 1
   169  161  178 1
   170  161  179 1
   171  161  186 1
   172  161  193 1
   173  162  163 ar
   174  162  177 1
   175  162  216 ar
   176  163  164 ar
   177  163  176 ar
   178  164  165 1
   179  164  173 ar
   180  165  166 1
   181  165  167 2
   182  167  168 1
   183  167  169 2
   184  169  170 1
   185  169  171 2
   186  171  172 1
   187  171  173 1
   188  173  174 ar
   189  174  175 1
   190  174  176 ar
   191  176  202 ar
   192  177  178 3
   193  179  180 1
   194  179  181 1
   195  179  182 1
   196  182  183 1
   197  182  184 1
   198  182  185 1
   199  186  187 1
   200  186  188 1
   201  186  189 1
   202  189  190 1
   203  189  191 1
   204  189  192 1
   205  193  194 1
   206  193  195 1
   207  193  196 1
   208  196  197 1
   209  196  198 2
   210  198  199 1
   211  198  200 1
   212  201  218 1
   213  201  219 1
   214  201  226 1
   215  201  233 1
   216  202  203 ar
   217  202  217 1
   218  203  204 ar
   219  203  216 ar
   220  204  205 1
   221  204  213 ar
   222  205  206 1
   223  205  207 2
   224  207  208 1
   225  207  209 2
   226  209  210 1
   227  209  211 2
   228  211  212 1
   229  211  213 1
   230  213  214 ar
   231  214  215 1
   232  214  216 ar
   233  217  218 3
   234  219  220 1
   235  219  221 1
   236  219  222 1
   237  222  223 1
   238  222  224 1
   239  222  225 1
   240  226  227 1
   241  226  228 1
   242  226  229 1
   243  229  230 1
   244  229  231 1
   245  229  232 1
   246  233  234 1
   247  233  235 1
   248  233  236 1
   249  236  237 1
   250  236  238 2
   251  238  239 1
   252  238  240 1
   253  241  258 1
   254  241  259 1
   255  241  266 1
   256  241  273 1
   257  242  243 ar
   258  242  257 1
   259  242  296 ar
   260  243  244 ar
   261  243  256 ar
   262  244  245 1
   263  244  253 ar
   264  245  246 1
   265  245  247 2
   266  247  248 1
   267  247  249 2
   268  249  250 1
   269  249  251 2
   270  251  252 1
   271  251  253 1
   272  253  254 ar
   273  254  255 1
   274  254  256 ar
   275  256  282 ar
   276  257  258 3
   277  259  260 1
   278  259  261 1
   279  259  262 1
   280  262  263 1
   281  262  264 1
   282  262  265 1
   283  266  267 1
   284  266  268 1
   285  266  269 1
   286  269  270 1
   287  269  271 1
   288  269  272 1
   289  273  274 1
   290  273  275 1
   291  273  276 1
   292  276  277 1
   293  276  278 2
   294  278  279 1
   295  278  280 1
   296  281  298 1
   297  281  299 1
   298  281  306 1
   299  281  313 1
   300  282  283 ar
   301  282  297 1
   302  283  284 ar
   303  283  296 ar
   304  284  285 1
   305  284  293 ar
   306  285  286 1
   307  285  287 2
   308  287  288 1
   309  287  289 2
   310  289  290 1
   311  289  291 2
   312  291  292 1
   313  291  293 1
   314  293  294 ar
   315  294  295 1
   316  294  296 ar
   317  297  298 3
   318  299  300 1
   319  299  301 1
   320  299  302 1
   321  302  303 1
   322  302  304 1
   323  302  305 1
   324  306  307 1
   325  306  308 1
   326  306  309 1
   327  309  310 1
   328  309  311 1
   329  309  312 1
   330  313  314 1
   331  313  315 1
   332  313  316 1
   333  316  317 1
   334  316  318 2
   335  318  319 1
   336  318  320 1
   337  321  338 1
   338  321  339 1
   339  321  346 1
   340  321  353 1
   341  322  323 ar
   342  322  337 1
   343  322  376 ar
   344  323  324 ar
   345  323  336 ar
   346  324  325 1
   347  324  333 ar
   348  325  326 1
   349  325  327 2
   350  327  328 1
   351  327  329 2
   352  329  330 1
   353  329  331 2
   354  331  332 1
   355  331  333 1
   356  333  334 ar
   357  334  335 1
   358  334  336 ar
   359  336  362 ar
   360  337  338 3
   361  339  340 1
   362  339  341 1
   363  339  342 1
   364  342  343 1
   365  342  344 1
   366  342  345 1
   367  346  347 1
   368  346  348 1
   369  346  349 1
   370  349  350 1
   371  349  351 1
   372  349  352 1
   373  353  354 1
   374  353  355 1
   375  353  356 1
   376  356  357 1
   377  356  358 2
   378  358  359 1
   379  358  360 1
   380  361  378 1
   381  361  379 1
   382  361  386 1
   383  361  393 1
   384  362  363 ar
   385  362  377 1
   386  363  364 ar
   387  363  376 ar
   388  364  365 1
   389  364  373 ar
   390  365  366 1
   391  365  367 2
   392  367  368 1
   393  367  369 2
   394  369  370 1
   395  369  371 2
   396  371  372 1
   397  371  373 1
   398  373  374 ar
   399  374  375 1
   400  374  376 ar
   401  377  378 3
   402  379  380 1
   403  379  381 1
   404  379  382 1
   405  382  383 1
   406  382  384 1
   407  382  385 1
   408  386  387 1
   409  386  388 1
   410  386  389 1
   411  389  390 1
   412  389  391 1
   413  389  392 1
   414  393  394 1
   415  393  395 1
   416  393  396 1
   417  396  397 1
   418  396  398 2
   419  398  399 1
   420  398  400 1
@<TRIPOS>SUBSTRUCTURE
     1 RES1     1 RESIDUE           4 A     RES1     0 ROOT
     2 RES2    81 RESIDUE           4 A     RES2     0 ROOT
     3 RES3   161 RESIDUE           4 A     RES3     0 ROOT
     4 RES4   241 RESIDUE           4 A     RES4     0 ROOT
     5 RES5   321 RESIDUE           4 A     RES5     0 ROOT
