@<TRIPOS>MOLECULE
k15052
   360   384     6     0     0
SMALL
NO_CHARGES
****
Generated from the CSD

@<TRIPOS>ATOM
     1 C1B      2.0085   4.5923  -0.5991   C.2       1 RES1   0.0000
     2 C2B      2.1844   5.9699  -0.7677   C.2       1 RES1   0.0000
     3 N3B      3.1560   6.6720  -1.4800   N.3       1 RES1   0.0000
     4 C4B      4.2771   6.2099  -2.1331   C.2       1 RES1   0.0000
     5 H4BA     4.4678   5.2798  -2.1486   H         1 RES1   0.0000
     6 C5B      5.1025   7.0775  -2.7496   C.2       1 RES1   0.0000
     7 H5BA     5.8722   6.7555  -3.2031   H         1 RES1   0.0000
     8 C6B      4.8292   8.4724  -2.7244   C.2       1 RES1   0.0000
     9 H6BA     5.4061   9.0768  -3.1774   H         1 RES1   0.0000
    10 C7B      3.7527   8.9389  -2.0599   C.2       1 RES1   0.0000
    11 H7BA     3.5845   9.8740  -2.0388   H         1 RES1   0.0000
    12 C8B      2.8663   8.0531  -1.3918   C.2       1 RES1   0.0000
    13 C9B      1.7469   8.2239  -0.6187   C.2       1 RES1   0.0000
    14 H9BA     1.3392   9.0540  -0.3995   H         1 RES1   0.0000
    15 C10B     1.3056   6.9429  -0.2046   C.2       1 RES1   0.0000
    16 C11B     2.8180   3.5835  -1.2091   C.1       1 RES1   0.0000
    17 C12B     3.4376   2.7097  -1.7485   C.1       1 RES1   0.0000
    18 C13B     4.1812   1.6842  -2.5061   C.3       1 RES1   0.0000
    19 C14B     4.6002   0.5415  -1.5870   C.3       1 RES1   0.0000
    20 H14A     5.2052   0.8836  -0.8951   H         1 RES1   0.0000
    21 H14B     5.0591  -0.1474  -2.1108   H         1 RES1   0.0000
    22 H14C     3.8059   0.1554  -1.1626   H         1 RES1   0.0000
    23 C15B     3.2541   1.1204  -3.5953   C.3       1 RES1   0.0000
    24 H15A     2.4778   0.6940  -3.1757   H         1 RES1   0.0000
    25 H15B     3.7409   0.4583  -4.1291   H         1 RES1   0.0000
    26 H15C     2.9516   1.8493  -4.1771   H         1 RES1   0.0000
    27 C16B     5.4120   2.3392  -3.1392   C.3       1 RES1   0.0000
    28 H16A     5.9901   2.6981  -2.4332   H         1 RES1   0.0000
    29 H16B     5.1276   3.0663  -3.7312   H         1 RES1   0.0000
    30 H16C     5.9067   1.6710  -3.6575   H         1 RES1   0.0000
    31 C1B      0.2142   6.5614   0.5991   C.2       1 RES1   0.0000
    32 C2B      0.0382   5.1838   0.7677   C.2       1 RES1   0.0000
    33 N3B     -0.9333   4.4817   1.4800   N.3       1 RES1   0.0000
    34 C4B     -2.0544   4.9438   2.1331   C.2       1 RES1   0.0000
    35 H4BA    -2.2452   5.8739   2.1486   H         1 RES1   0.0000
    36 C5B     -2.8798   4.0762   2.7496   C.2       1 RES1   0.0000
    37 H5BA    -3.6495   4.3982   3.2031   H         1 RES1   0.0000
    38 C6B     -2.6065   2.6813   2.7244   C.2       1 RES1   0.0000
    39 H6BA    -3.1835   2.0769   3.1774   H         1 RES1   0.0000
    40 C7B     -1.5300   2.2148   2.0599   C.2       1 RES1   0.0000
    41 H7BA    -1.3618   1.2797   2.0388   H         1 RES1   0.0000
    42 C8B     -0.6436   3.1006   1.3918   C.2       1 RES1   0.0000
    43 C9B      0.4758   2.9298   0.6187   C.2       1 RES1   0.0000
    44 H9BA     0.8834   2.0997   0.3995   H         1 RES1   0.0000
    45 C10B     0.9171   4.2108   0.2046   C.2       1 RES1   0.0000
    46 C11B    -0.5953   7.5702   1.2091   C.1       1 RES1   0.0000
    47 C12B    -1.2150   8.4439   1.7485   C.1       1 RES1   0.0000
    48 C13B    -1.9586   9.4695   2.5061   C.3       1 RES1   0.0000
    49 C14B    -2.3776  10.6122   1.5870   C.3       1 RES1   0.0000
    50 H14A    -2.9826  10.2701   0.8951   H         1 RES1   0.0000
    51 H14B    -2.8364  11.3011   2.1108   H         1 RES1   0.0000
    52 H14C    -1.5832  10.9983   1.1626   H         1 RES1   0.0000
    53 C15B    -1.0314  10.0333   3.5953   C.3       1 RES1   0.0000
    54 H15A    -0.2551  10.4597   3.1757   H         1 RES1   0.0000
    55 H15B    -1.5183  10.6954   4.1291   H         1 RES1   0.0000
    56 H15C    -0.7289   9.3044   4.1771   H         1 RES1   0.0000
    57 C16B    -3.1893   8.8145   3.1392   C.3       1 RES1   0.0000
    58 H16A    -3.7675   8.4556   2.4332   H         1 RES1   0.0000
    59 H16B    -2.9049   8.0874   3.7312   H         1 RES1   0.0000
    60 H16C    -3.6841   9.4826   3.6575   H         1 RES1   0.0000
    61 C1B      4.0162   7.7287  16.5482   C.2       2 RES2   0.0000
    62 C2B      4.1921   9.1063  16.3796   C.2       2 RES2   0.0000
    63 N3B      5.1637   9.8084  15.6673   N.3       2 RES2   0.0000
    64 C4B      6.2848   9.3463  15.0142   C.2       2 RES2   0.0000
    65 H4BA     6.4755   8.4162  14.9987   H         2 RES2   0.0000
    66 C5B      7.1102  10.2139  14.3977   C.2       2 RES2   0.0000
    67 H5BA     7.8799   9.8919  13.9442   H         2 RES2   0.0000
    68 C6B      6.8368  11.6088  14.4229   C.2       2 RES2   0.0000
    69 H6BA     7.4138  12.2132  13.9699   H         2 RES2   0.0000
    70 C7B      5.7603  12.0753  15.0874   C.2       2 RES2   0.0000
    71 H7BA     5.5921  13.0104  15.1085   H         2 RES2   0.0000
    72 C8B      4.8740  11.1895  15.7554   C.2       2 RES2   0.0000
    73 C9B      3.7545  11.3603  16.5286   C.2       2 RES2   0.0000
    74 H9BA     3.3469  12.1904  16.7478   H         2 RES2   0.0000
    75 C10B     3.3132  10.0793  16.9427   C.2       2 RES2   0.0000
    76 C11B     4.8256   6.7199  15.9382   C.1       2 RES2   0.0000
    77 C12B     5.4453   5.8462  15.3988   C.1       2 RES2   0.0000
    78 C13B     6.1889   4.8206  14.6412   C.3       2 RES2   0.0000
    79 C14B     6.6079   3.6779  15.5603   C.3       2 RES2   0.0000
    80 H14A     7.2129   4.0200  16.2522   H         2 RES2   0.0000
    81 H14B     7.0667   2.9890  15.0365   H         2 RES2   0.0000
    82 H14C     5.8135   3.2918  15.9847   H         2 RES2   0.0000
    83 C15B     5.2618   4.2568  13.5520   C.3       2 RES2   0.0000
    84 H15A     4.4855   3.8304  13.9716   H         2 RES2   0.0000
    85 H15B     5.7486   3.5947  13.0182   H         2 RES2   0.0000
    86 H15C     4.9592   4.9857  12.9702   H         2 RES2   0.0000
    87 C16B     7.4197   5.4756  14.0081   C.3       2 RES2   0.0000
    88 H16A     7.9978   5.8345  14.7141   H         2 RES2   0.0000
    89 H16B     7.1353   6.2027  13.4160   H         2 RES2   0.0000
    90 H16C     7.9144   4.8075  13.4898   H         2 RES2   0.0000
    91 C1B      2.2219   9.6978  17.7464   C.2       2 RES2   0.0000
    92 C2B      2.0459   8.3202  17.9150   C.2       2 RES2   0.0000
    93 N3B      1.0743   7.6181  18.6273   N.3       2 RES2   0.0000
    94 C4B     -0.0468   8.0802  19.2804   C.2       2 RES2   0.0000
    95 H4BA    -0.2375   9.0103  19.2958   H         2 RES2   0.0000
    96 C5B     -0.8722   7.2126  19.8969   C.2       2 RES2   0.0000
    97 H5BA    -1.6419   7.5346  20.3504   H         2 RES2   0.0000
    98 C6B     -0.5988   5.8177  19.8716   C.2       2 RES2   0.0000
    99 H6BA    -1.1758   5.2133  20.3247   H         2 RES2   0.0000
   100 C7B      0.4777   5.3512  19.2072   C.2       2 RES2   0.0000
   101 H7BA     0.6459   4.4161  19.1861   H         2 RES2   0.0000
   102 C8B      1.3640   6.2370  18.5391   C.2       2 RES2   0.0000
   103 C9B      2.4835   6.0662  17.7660   C.2       2 RES2   0.0000
   104 H9BA     2.8911   5.2361  17.5468   H         2 RES2   0.0000
   105 C10B     2.9248   7.3472  17.3519   C.2       2 RES2   0.0000
   106 C11B     1.4124  10.7066  18.3563   C.1       2 RES2   0.0000
   107 C12B     0.7927  11.5804  18.8958   C.1       2 RES2   0.0000
   108 C13B     0.0491  12.6059  19.6534   C.3       2 RES2   0.0000
   109 C14B    -0.3699  13.7486  18.7343   C.3       2 RES2   0.0000
   110 H14A    -0.9749  13.4065  18.0424   H         2 RES2   0.0000
   111 H14B    -0.8287  14.4375  19.2581   H         2 RES2   0.0000
   112 H14C     0.4245  14.1347  18.3099   H         2 RES2   0.0000
   113 C15B     0.9763  13.1697  20.7426   C.3       2 RES2   0.0000
   114 H15A     1.7525  13.5961  20.3230   H         2 RES2   0.0000
   115 H15B     0.4894  13.8318  21.2764   H         2 RES2   0.0000
   116 H15C     1.2788  12.4408  21.3244   H         2 RES2   0.0000
   117 C16B    -1.1817  11.9509  20.2864   C.3       2 RES2   0.0000
   118 H16A    -1.7598  11.5920  19.5805   H         2 RES2   0.0000
   119 H16B    -0.8973  11.2238  20.8785   H         2 RES2   0.0000
   120 H16C    -1.6764  12.6191  20.8048   H         2 RES2   0.0000
   121 C1B      8.0363   4.5923  -0.5991   C.2       3 RES3   0.0000
   122 C2B      8.2122   5.9699  -0.7677   C.2       3 RES3   0.0000
   123 N3B      9.1838   6.6720  -1.4800   N.3       3 RES3   0.0000
   124 C4B     10.3049   6.2099  -2.1331   C.2       3 RES3   0.0000
   125 H4BA    10.4956   5.2798  -2.1486   H         3 RES3   0.0000
   126 C5B     11.1303   7.0775  -2.7496   C.2       3 RES3   0.0000
   127 H5BA    11.9000   6.7555  -3.2031   H         3 RES3   0.0000
   128 C6B     10.8570   8.4724  -2.7244   C.2       3 RES3   0.0000
   129 H6BA    11.4339   9.0768  -3.1774   H         3 RES3   0.0000
   130 C7B      9.7805   8.9389  -2.0599   C.2       3 RES3   0.0000
   131 H7BA     9.6123   9.8740  -2.0388   H         3 RES3   0.0000
   132 C8B      8.8941   8.0531  -1.3918   C.2       3 RES3   0.0000
   133 C9B      7.7747   8.2239  -0.6187   C.2       3 RES3   0.0000
   134 H9BA     7.3670   9.0540  -0.3995   H         3 RES3   0.0000
   135 C10B     7.3334   6.9429  -0.2046   C.2       3 RES3   0.0000
   136 C11B     8.8458   3.5835  -1.2091   C.1       3 RES3   0.0000
   137 C12B     9.4654   2.7097  -1.7485   C.1       3 RES3   0.0000
   138 C13B    10.2090   1.6842  -2.5061   C.3       3 RES3   0.0000
   139 C14B    10.6280   0.5415  -1.5870   C.3       3 RES3   0.0000
   140 H14A    11.2330   0.8836  -0.8951   H         3 RES3   0.0000
   141 H14B    11.0869  -0.1474  -2.1108   H         3 RES3   0.0000
   142 H14C     9.8337   0.1554  -1.1626   H         3 RES3   0.0000
   143 C15B     9.2819   1.1204  -3.5953   C.3       3 RES3   0.0000
   144 H15A     8.5056   0.6940  -3.1757   H         3 RES3   0.0000
   145 H15B     9.7687   0.4583  -4.1291   H         3 RES3   0.0000
   146 H15C     8.9794   1.8493  -4.1771   H         3 RES3   0.0000
   147 C16B    11.4398   2.3392  -3.1392   C.3       3 RES3   0.0000
   148 H16A    12.0179   2.6981  -2.4332   H         3 RES3   0.0000
   149 H16B    11.1554   3.0663  -3.7312   H         3 RES3   0.0000
   150 H16C    11.9345   1.6710  -3.6575   H         3 RES3   0.0000
   151 C1B      6.2420   6.5614   0.5991   C.2       3 RES3   0.0000
   152 C2B      6.0660   5.1838   0.7677   C.2       3 RES3   0.0000
   153 N3B      5.0945   4.4817   1.4800   N.3       3 RES3   0.0000
   154 C4B      3.9734   4.9438   2.1331   C.2       3 RES3   0.0000
   155 H4BA     3.7826   5.8739   2.1486   H         3 RES3   0.0000
   156 C5B      3.1480   4.0762   2.7496   C.2       3 RES3   0.0000
   157 H5BA     2.3783   4.3982   3.2031   H         3 RES3   0.0000
   158 C6B      3.4213   2.6813   2.7244   C.2       3 RES3   0.0000
   159 H6BA     2.8443   2.0769   3.1774   H         3 RES3   0.0000
   160 C7B      4.4978   2.2148   2.0599   C.2       3 RES3   0.0000
   161 H7BA     4.6660   1.2797   2.0388   H         3 RES3   0.0000
   162 C8B      5.3842   3.1006   1.3918   C.2       3 RES3   0.0000
   163 C9B      6.5036   2.9298   0.6187   C.2       3 RES3   0.0000
   164 H9BA     6.9112   2.0997   0.3995   H         3 RES3   0.0000
   165 C10B     6.9449   4.2108   0.2046   C.2       3 RES3   0.0000
   166 C11B     5.4325   7.5702   1.2091   C.1       3 RES3   0.0000
   167 C12B     4.8128   8.4439   1.7485   C.1       3 RES3   0.0000
   168 C13B     4.0692   9.4695   2.5061   C.3       3 RES3   0.0000
   169 C14B     3.6502  10.6122   1.5870   C.3       3 RES3   0.0000
   170 H14A     3.0452  10.2701   0.8951   H         3 RES3   0.0000
   171 H14B     3.1914  11.3011   2.1108   H         3 RES3   0.0000
   172 H14C     4.4446  10.9983   1.1626   H         3 RES3   0.0000
   173 C15B     4.9964  10.0333   3.5953   C.3       3 RES3   0.0000
   174 H15A     5.7727  10.4597   3.1757   H         3 RES3   0.0000
   175 H15B     4.5095  10.6954   4.1291   H         3 RES3   0.0000
   176 H15C     5.2989   9.3044   4.1771   H         3 RES3   0.0000
   177 C16B     2.8385   8.8145   3.1392   C.3       3 RES3   0.0000
   178 H16A     2.2603   8.4556   2.4332   H         3 RES3   0.0000
   179 H16B     3.1229   8.0874   3.7312   H         3 RES3   0.0000
   180 H16C     2.3437   9.4826   3.6575   H         3 RES3   0.0000
   181 C1B     10.0440   7.7287  16.5482   C.2       4 RES4   0.0000
   182 C2B     10.2199   9.1063  16.3796   C.2       4 RES4   0.0000
   183 N3B     11.1915   9.8084  15.6673   N.3       4 RES4   0.0000
   184 C4B     12.3126   9.3463  15.0142   C.2       4 RES4   0.0000
   185 H4BA    12.5033   8.4162  14.9987   H         4 RES4   0.0000
   186 C5B     13.1380  10.2139  14.3977   C.2       4 RES4   0.0000
   187 H5BA    13.9077   9.8919  13.9442   H         4 RES4   0.0000
   188 C6B     12.8646  11.6088  14.4229   C.2       4 RES4   0.0000
   189 H6BA    13.4416  12.2132  13.9699   H         4 RES4   0.0000
   190 C7B     11.7881  12.0753  15.0874   C.2       4 RES4   0.0000
   191 H7BA    11.6199  13.0104  15.1085   H         4 RES4   0.0000
   192 C8B     10.9018  11.1895  15.7554   C.2       4 RES4   0.0000
   193 C9B      9.7823  11.3603  16.5286   C.2       4 RES4   0.0000
   194 H9BA     9.3747  12.1904  16.7478   H         4 RES4   0.0000
   195 C10B     9.3410  10.0793  16.9427   C.2       4 RES4   0.0000
   196 C11B    10.8534   6.7199  15.9382   C.1       4 RES4   0.0000
   197 C12B    11.4731   5.8462  15.3988   C.1       4 RES4   0.0000
   198 C13B    12.2167   4.8206  14.6412   C.3       4 RES4   0.0000
   199 C14B    12.6357   3.6779  15.5603   C.3       4 RES4   0.0000
   200 H14A    13.2407   4.0200  16.2522   H         4 RES4   0.0000
   201 H14B    13.0945   2.9890  15.0365   H         4 RES4   0.0000
   202 H14C    11.8413   3.2918  15.9847   H         4 RES4   0.0000
   203 C15B    11.2896   4.2568  13.5520   C.3       4 RES4   0.0000
   204 H15A    10.5133   3.8304  13.9716   H         4 RES4   0.0000
   205 H15B    11.7764   3.5947  13.0182   H         4 RES4   0.0000
   206 H15C    10.9870   4.9857  12.9702   H         4 RES4   0.0000
   207 C16B    13.4475   5.4756  14.0081   C.3       4 RES4   0.0000
   208 H16A    14.0256   5.8345  14.7141   H         4 RES4   0.0000
   209 H16B    13.1631   6.2027  13.4160   H         4 RES4   0.0000
   210 H16C    13.9422   4.8075  13.4898   H         4 RES4   0.0000
   211 C1B      8.2497   9.6978  17.7464   C.2       4 RES4   0.0000
   212 C2B      8.0737   8.3202  17.9150   C.2       4 RES4   0.0000
   213 N3B      7.1021   7.6181  18.6273   N.3       4 RES4   0.0000
   214 C4B      5.9810   8.0802  19.2804   C.2       4 RES4   0.0000
   215 H4BA     5.7903   9.0103  19.2958   H         4 RES4   0.0000
   216 C5B      5.1556   7.2126  19.8969   C.2       4 RES4   0.0000
   217 H5BA     4.3859   7.5346  20.3504   H         4 RES4   0.0000
   218 C6B      5.4290   5.8177  19.8716   C.2       4 RES4   0.0000
   219 H6BA     4.8520   5.2133  20.3247   H         4 RES4   0.0000
   220 C7B      6.5055   5.3512  19.2072   C.2       4 RES4   0.0000
   221 H7BA     6.6737   4.4161  19.1861   H         4 RES4   0.0000
   222 C8B      7.3918   6.2370  18.5391   C.2       4 RES4   0.0000
   223 C9B      8.5113   6.0662  17.7660   C.2       4 RES4   0.0000
   224 H9BA     8.9189   5.2361  17.5468   H         4 RES4   0.0000
   225 C10B     8.9526   7.3472  17.3519   C.2       4 RES4   0.0000
   226 C11B     7.4402  10.7066  18.3563   C.1       4 RES4   0.0000
   227 C12B     6.8205  11.5804  18.8958   C.1       4 RES4   0.0000
   228 C13B     6.0769  12.6059  19.6534   C.3       4 RES4   0.0000
   229 C14B     5.6579  13.7486  18.7343   C.3       4 RES4   0.0000
   230 H14A     5.0529  13.4065  18.0424   H         4 RES4   0.0000
   231 H14B     5.1991  14.4375  19.2581   H         4 RES4   0.0000
   232 H14C     6.4523  14.1347  18.3099   H         4 RES4   0.0000
   233 C15B     7.0041  13.1697  20.7426   C.3       4 RES4   0.0000
   234 H15A     7.7803  13.5961  20.3230   H         4 RES4   0.0000
   235 H15B     6.5172  13.8318  21.2764   H         4 RES4   0.0000
   236 H15C     7.3066  12.4408  21.3244   H         4 RES4   0.0000
   237 C16B     4.8461  11.9509  20.2864   C.3       4 RES4   0.0000
   238 H16A     4.2680  11.5920  19.5805   H         4 RES4   0.0000
   239 H16B     5.1305  11.2238  20.8785   H         4 RES4   0.0000
   240 H16C     4.3514  12.6191  20.8048   H         4 RES4   0.0000
   241 C1A      3.4163   0.3350   9.0819   C.2       5 RES5   0.0000
   242 C2A      2.8855   1.0350   7.9975   C.2       5 RES5   0.0000
   243 N3A      1.7657   0.7621   7.2082   N.3       5 RES5   0.0000
   244 C4A      0.8366  -0.2568   7.3094   C.2       5 RES5   0.0000
   245 H4AA     0.9316  -0.9227   7.9803   H         5 RES5   0.0000
   246 C5A     -0.2009  -0.3027   6.4572   C.2       5 RES5   0.0000
   247 H5AA    -0.8336  -1.0069   6.5263   H         5 RES5   0.0000
   248 C6A     -0.3606   0.6892   5.4570   C.2       5 RES5   0.0000
   249 H6AA    -1.1019   0.6478   4.8647   H         5 RES5   0.0000
   250 C7A      0.5393   1.6966   5.3436   C.2       5 RES5   0.0000
   251 H7AA     0.4263   2.3553   4.6692   H         5 RES5   0.0000
   252 C8A      1.6501   1.7749   6.2246   C.2       5 RES5   0.0000
   253 C9A      2.6779   2.6657   6.3863   C.2       5 RES5   0.0000
   254 H9AA     2.8368   3.4365   5.8541   H         5 RES5   0.0000
   255 C10A     3.4596   2.2401   7.4814   C.2       5 RES5   0.0000
   256 C11A     2.8960  -0.8802   9.6234   C.1       5 RES5   0.0000
   257 C12A     2.5074  -1.8916  10.1448   C.1       5 RES5   0.0000
   258 C13A     1.9730  -3.0914  10.8187   C.3       5 RES5   0.0000
   259 C14A     1.8797  -2.8220  12.2991   C.3       5 RES5   0.0000
   260 H14D     1.3082  -2.0407  12.4541   H         5 RES5   0.0000
   261 H14E     2.7754  -2.6462  12.6564   H         5 RES5   0.0000
   262 H14F     1.4951  -3.6030  12.7490   H         5 RES5   0.0000
   263 C15A     2.8681  -4.2992  10.5586   C.3       5 RES5   0.0000
   264 H15D     3.7654  -4.1229  10.9125   H         5 RES5   0.0000
   265 H15E     2.9240  -4.4634   9.5939   H         5 RES5   0.0000
   266 H15F     2.4915  -5.0867  11.0034   H         5 RES5   0.0000
   267 C16A     0.6035  -3.4039  10.2455   C.3       5 RES5   0.0000
   268 H16D     0.0259  -2.6180  10.3347   H         5 RES5   0.0000
   269 H16E     0.2094  -4.1552  10.7359   H         5 RES5   0.0000
   270 H16F     0.6922  -3.6406   9.2990   H         5 RES5   0.0000
   271 C1A      4.6191   2.8014   8.0654   C.2       5 RES5   0.0000
   272 C2A      5.1500   2.1014   9.1498   C.2       5 RES5   0.0000
   273 N3A      6.2698   2.3743   9.9391   N.3       5 RES5   0.0000
   274 C4A      7.1989   3.3932   9.8379   C.2       5 RES5   0.0000
   275 H4AA     7.1039   4.0592   9.1669   H         5 RES5   0.0000
   276 C5A      8.2364   3.4391  10.6901   C.2       5 RES5   0.0000
   277 H5AA     8.8690   4.1433  10.6210   H         5 RES5   0.0000
   278 C6A      8.3960   2.4472  11.6903   C.2       5 RES5   0.0000
   279 H6AA     9.1374   2.4886  12.2826   H         5 RES5   0.0000
   280 C7A      7.4962   1.4398  11.8037   C.2       5 RES5   0.0000
   281 H7AA     7.6092   0.7811  12.4781   H         5 RES5   0.0000
   282 C8A      6.3854   1.3615  10.9226   C.2       5 RES5   0.0000
   283 C9A      5.3576   0.4707  10.7610   C.2       5 RES5   0.0000
   284 H9AA     5.1987  -0.3001  11.2932   H         5 RES5   0.0000
   285 C10A     4.5759   0.8963   9.6659   C.2       5 RES5   0.0000
   286 C11A     5.1395   4.0166   7.5239   C.1       5 RES5   0.0000
   287 C12A     5.5281   5.0280   7.0024   C.1       5 RES5   0.0000
   288 C13A     6.0624   6.2278   6.3285   C.3       5 RES5   0.0000
   289 C14A     6.1558   5.9584   4.8482   C.3       5 RES5   0.0000
   290 H14D     6.7272   5.1771   4.6932   H         5 RES5   0.0000
   291 H14E     5.2601   5.7826   4.4909   H         5 RES5   0.0000
   292 H14F     6.5404   6.7394   4.3983   H         5 RES5   0.0000
   293 C15A     5.1674   7.4356   6.5887   C.3       5 RES5   0.0000
   294 H15D     4.2700   7.2593   6.2348   H         5 RES5   0.0000
   295 H15E     5.1115   7.5998   7.5534   H         5 RES5   0.0000
   296 H15F     5.5440   8.2231   6.1439   H         5 RES5   0.0000
   297 C16A     7.4319   6.5403   6.9018   C.3       5 RES5   0.0000
   298 H16D     8.0096   5.7544   6.8126   H         5 RES5   0.0000
   299 H16E     7.8260   7.2916   6.4114   H         5 RES5   0.0000
   300 H16F     7.3433   6.7770   7.8483   H         5 RES5   0.0000
   301 C1A      5.6390  11.4887   9.0819   C.2       6 RES6   0.0000
   302 C2A      5.1082  12.1887   7.9975   C.2       6 RES6   0.0000
   303 N3A      3.9883  11.9158   7.2082   N.3       6 RES6   0.0000
   304 C4A      3.0592  10.8969   7.3094   C.2       6 RES6   0.0000
   305 H4AA     3.1542  10.2310   7.9803   H         6 RES6   0.0000
   306 C5A      2.0218  10.8510   6.4572   C.2       6 RES6   0.0000
   307 H5AA     1.3891  10.1468   6.5263   H         6 RES6   0.0000
   308 C6A      1.8621  11.8429   5.4570   C.2       6 RES6   0.0000
   309 H6AA     1.1207  11.8015   4.8647   H         6 RES6   0.0000
   310 C7A      2.7620  12.8503   5.3436   C.2       6 RES6   0.0000
   311 H7AA     2.6490  13.5090   4.6692   H         6 RES6   0.0000
   312 C8A      3.8727  12.9286   6.2246   C.2       6 RES6   0.0000
   313 C9A      4.9006  13.8194   6.3863   C.2       6 RES6   0.0000
   314 H9AA     5.0594  14.5902   5.8541   H         6 RES6   0.0000
   315 C10A     5.6822  13.3938   7.4814   C.2       6 RES6   0.0000
   316 C11A     5.1186  10.2735   9.6234   C.1       6 RES6   0.0000
   317 C12A     4.7301   9.2621  10.1448   C.1       6 RES6   0.0000
   318 C13A     4.1957   8.0623  10.8187   C.3       6 RES6   0.0000
   319 C14A     4.1023   8.3317  12.2991   C.3       6 RES6   0.0000
   320 H14D     3.5309   9.1130  12.4541   H         6 RES6   0.0000
   321 H14E     4.9980   8.5075  12.6564   H         6 RES6   0.0000
   322 H14F     3.7178   7.5507  12.7490   H         6 RES6   0.0000
   323 C15A     5.0908   6.8545  10.5586   C.3       6 RES6   0.0000
   324 H15D     5.9881   7.0308  10.9125   H         6 RES6   0.0000
   325 H15E     5.1466   6.6903   9.5939   H         6 RES6   0.0000
   326 H15F     4.7141   6.0670  11.0034   H         6 RES6   0.0000
   327 C16A     2.8262   7.7498  10.2455   C.3       6 RES6   0.0000
   328 H16D     2.2486   8.5357  10.3347   H         6 RES6   0.0000
   329 H16E     2.4321   6.9985  10.7359   H         6 RES6   0.0000
   330 H16F     2.9149   7.5131   9.2990   H         6 RES6   0.0000
   331 C1A      6.8418  13.9551   8.0654   C.2       6 RES6   0.0000
   332 C2A      7.3726  13.2551   9.1498   C.2       6 RES6   0.0000
   333 N3A      8.4925  13.5280   9.9391   N.3       6 RES6   0.0000
   334 C4A      9.4215  14.5469   9.8379   C.2       6 RES6   0.0000
   335 H4AA     9.3265  15.2128   9.1669   H         6 RES6   0.0000
   336 C5A     10.4590  14.5928  10.6901   C.2       6 RES6   0.0000
   337 H5AA    11.0917  15.2970  10.6210   H         6 RES6   0.0000
   338 C6A     10.6187  13.6009  11.6903   C.2       6 RES6   0.0000
   339 H6AA    11.3601  13.6423  12.2826   H         6 RES6   0.0000
   340 C7A      9.7188  12.5935  11.8037   C.2       6 RES6   0.0000
   341 H7AA     9.8318  11.9348  12.4781   H         6 RES6   0.0000
   342 C8A      8.6081  12.5152  10.9226   C.2       6 RES6   0.0000
   343 C9A      7.5802  11.6244  10.7610   C.2       6 RES6   0.0000
   344 H9AA     7.4213  10.8536  11.2932   H         6 RES6   0.0000
   345 C10A     6.7986  12.0500   9.6659   C.2       6 RES6   0.0000
   346 C11A     7.3622  15.1703   7.5239   C.1       6 RES6   0.0000
   347 C12A     7.7507  16.1817   7.0024   C.1       6 RES6   0.0000
   348 C13A     8.2851  17.3815   6.3285   C.3       6 RES6   0.0000
   349 C14A     8.3785  17.1121   4.8482   C.3       6 RES6   0.0000
   350 H14D     8.9499  16.3308   4.6932   H         6 RES6   0.0000
   351 H14E     7.4828  16.9363   4.4909   H         6 RES6   0.0000
   352 H14F     8.7630  17.8931   4.3983   H         6 RES6   0.0000
   353 C15A     7.3900  18.5893   6.5887   C.3       6 RES6   0.0000
   354 H15D     6.4927  18.4130   6.2348   H         6 RES6   0.0000
   355 H15E     7.3341  18.7535   7.5534   H         6 RES6   0.0000
   356 H15F     7.7667  19.3768   6.1439   H         6 RES6   0.0000
   357 C16A     9.6546  17.6940   6.9018   C.3       6 RES6   0.0000
   358 H16D    10.2322  16.9081   6.8126   H         6 RES6   0.0000
   359 H16E    10.0487  18.4453   6.4114   H         6 RES6   0.0000
   360 H16F     9.5659  17.9307   7.8483   H         6 RES6   0.0000
@<TRIPOS>BOND
     1     1     2   un
     2     1    16   un
     3     1    45   un
     4     2     3    1
     5     2    15   un
     6     3     4    1
     7     3    12    1
     8     4     5    1
     9     4     6   un
    10     6     7    1
    11     6     8   un
    12     8     9    1
    13     8    10   un
    14    10    11    1
    15    10    12   un
    16    12    13   un
    17    13    14    1
    18    13    15   un
    19    15    31   un
    20    16    17   un
    21    17    18    1
    22    18    19    1
    23    18    23    1
    24    18    27    1
    25    19    20    1
    26    19    21    1
    27    19    22    1
    28    23    24    1
    29    23    25    1
    30    23    26    1
    31    27    28    1
    32    27    29    1
    33    27    30    1
    34    31    32   un
    35    31    46   un
    36    32    33    1
    37    32    45   un
    38    33    34    1
    39    33    42    1
    40    34    35    1
    41    34    36   un
    42    36    37    1
    43    36    38   un
    44    38    39    1
    45    38    40   un
    46    40    41    1
    47    40    42   un
    48    42    43   un
    49    43    44    1
    50    43    45   un
    51    46    47   un
    52    47    48    1
    53    48    49    1
    54    48    53    1
    55    48    57    1
    56    49    50    1
    57    49    51    1
    58    49    52    1
    59    53    54    1
    60    53    55    1
    61    53    56    1
    62    57    58    1
    63    57    59    1
    64    57    60    1
    65    61    62   un
    66    61    76   un
    67    61   105   un
    68    62    63    1
    69    62    75   un
    70    63    64    1
    71    63    72    1
    72    64    65    1
    73    64    66   un
    74    66    67    1
    75    66    68   un
    76    68    69    1
    77    68    70   un
    78    70    71    1
    79    70    72   un
    80    72    73   un
    81    73    74    1
    82    73    75   un
    83    75    91   un
    84    76    77   un
    85    77    78    1
    86    78    79    1
    87    78    83    1
    88    78    87    1
    89    79    80    1
    90    79    81    1
    91    79    82    1
    92    83    84    1
    93    83    85    1
    94    83    86    1
    95    87    88    1
    96    87    89    1
    97    87    90    1
    98    91    92   un
    99    91   106   un
   100    92    93    1
   101    92   105   un
   102    93    94    1
   103    93   102    1
   104    94    95    1
   105    94    96   un
   106    96    97    1
   107    96    98   un
   108    98    99    1
   109    98   100   un
   110   100   101    1
   111   100   102   un
   112   102   103   un
   113   103   104    1
   114   103   105   un
   115   106   107   un
   116   107   108    1
   117   108   109    1
   118   108   113    1
   119   108   117    1
   120   109   110    1
   121   109   111    1
   122   109   112    1
   123   113   114    1
   124   113   115    1
   125   113   116    1
   126   117   118    1
   127   117   119    1
   128   117   120    1
   129   121   122   un
   130   121   136   un
   131   121   165   un
   132   122   123    1
   133   122   135   un
   134   123   124    1
   135   123   132    1
   136   124   125    1
   137   124   126   un
   138   126   127    1
   139   126   128   un
   140   128   129    1
   141   128   130   un
   142   130   131    1
   143   130   132   un
   144   132   133   un
   145   133   134    1
   146   133   135   un
   147   135   151   un
   148   136   137   un
   149   137   138    1
   150   138   139    1
   151   138   143    1
   152   138   147    1
   153   139   140    1
   154   139   141    1
   155   139   142    1
   156   143   144    1
   157   143   145    1
   158   143   146    1
   159   147   148    1
   160   147   149    1
   161   147   150    1
   162   151   152   un
   163   151   166   un
   164   152   153    1
   165   152   165   un
   166   153   154    1
   167   153   162    1
   168   154   155    1
   169   154   156   un
   170   156   157    1
   171   156   158   un
   172   158   159    1
   173   158   160   un
   174   160   161    1
   175   160   162   un
   176   162   163   un
   177   163   164    1
   178   163   165   un
   179   166   167   un
   180   167   168    1
   181   168   169    1
   182   168   173    1
   183   168   177    1
   184   169   170    1
   185   169   171    1
   186   169   172    1
   187   173   174    1
   188   173   175    1
   189   173   176    1
   190   177   178    1
   191   177   179    1
   192   177   180    1
   193   181   182   un
   194   181   196   un
   195   181   225   un
   196   182   183    1
   197   182   195   un
   198   183   184    1
   199   183   192    1
   200   184   185    1
   201   184   186   un
   202   186   187    1
   203   186   188   un
   204   188   189    1
   205   188   190   un
   206   190   191    1
   207   190   192   un
   208   192   193   un
   209   193   194    1
   210   193   195   un
   211   195   211   un
   212   196   197   un
   213   197   198    1
   214   198   199    1
   215   198   203    1
   216   198   207    1
   217   199   200    1
   218   199   201    1
   219   199   202    1
   220   203   204    1
   221   203   205    1
   222   203   206    1
   223   207   208    1
   224   207   209    1
   225   207   210    1
   226   211   212   un
   227   211   226   un
   228   212   213    1
   229   212   225   un
   230   213   214    1
   231   213   222    1
   232   214   215    1
   233   214   216   un
   234   216   217    1
   235   216   218   un
   236   218   219    1
   237   218   220   un
   238   220   221    1
   239   220   222   un
   240   222   223   un
   241   223   224    1
   242   223   225   un
   243   226   227   un
   244   227   228    1
   245   228   229    1
   246   228   233    1
   247   228   237    1
   248   229   230    1
   249   229   231    1
   250   229   232    1
   251   233   234    1
   252   233   235    1
   253   233   236    1
   254   237   238    1
   255   237   239    1
   256   237   240    1
   257   241   242   un
   258   241   256   un
   259   241   285   un
   260   242   243    1
   261   242   255   un
   262   243   244    1
   263   243   252    1
   264   244   245    1
   265   244   246   un
   266   246   247    1
   267   246   248   un
   268   248   249    1
   269   248   250   un
   270   250   251    1
   271   250   252   un
   272   252   253   un
   273   253   254    1
   274   253   255   un
   275   255   271   un
   276   256   257   un
   277   257   258    1
   278   258   259    1
   279   258   263    1
   280   258   267    1
   281   259   260    1
   282   259   261    1
   283   259   262    1
   284   263   264    1
   285   263   265    1
   286   263   266    1
   287   267   268    1
   288   267   269    1
   289   267   270    1
   290   271   272   un
   291   271   286   un
   292   272   273    1
   293   272   285   un
   294   273   274    1
   295   273   282    1
   296   274   275    1
   297   274   276   un
   298   276   277    1
   299   276   278   un
   300   278   279    1
   301   278   280   un
   302   280   281    1
   303   280   282   un
   304   282   283   un
   305   283   284    1
   306   283   285   un
   307   286   287   un
   308   287   288    1
   309   288   289    1
   310   288   293    1
   311   288   297    1
   312   289   290    1
   313   289   291    1
   314   289   292    1
   315   293   294    1
   316   293   295    1
   317   293   296    1
   318   297   298    1
   319   297   299    1
   320   297   300    1
   321   301   302   un
   322   301   316   un
   323   301   345   un
   324   302   303    1
   325   302   315   un
   326   303   304    1
   327   303   312    1
   328   304   305    1
   329   304   306   un
   330   306   307    1
   331   306   308   un
   332   308   309    1
   333   308   310   un
   334   310   311    1
   335   310   312   un
   336   312   313   un
   337   313   314    1
   338   313   315   un
   339   315   331   un
   340   316   317   un
   341   317   318    1
   342   318   319    1
   343   318   323    1
   344   318   327    1
   345   319   320    1
   346   319   321    1
   347   319   322    1
   348   323   324    1
   349   323   325    1
   350   323   326    1
   351   327   328    1
   352   327   329    1
   353   327   330    1
   354   331   332   un
   355   331   346   un
   356   332   333    1
   357   332   345   un
   358   333   334    1
   359   333   342    1
   360   334   335    1
   361   334   336   un
   362   336   337    1
   363   336   338   un
   364   338   339    1
   365   338   340   un
   366   340   341    1
   367   340   342   un
   368   342   343   un
   369   343   344    1
   370   343   345   un
   371   346   347   un
   372   347   348    1
   373   348   349    1
   374   348   353    1
   375   348   357    1
   376   349   350    1
   377   349   351    1
   378   349   352    1
   379   353   354    1
   380   353   355    1
   381   353   356    1
   382   357   358    1
   383   357   359    1
   384   357   360    1
@<TRIPOS>SUBSTRUCTURE
     1 RES1        1 GROUP             0 ****  ****    0  
     2 RES2       61 GROUP             0 ****  ****    0  
     3 RES3      121 GROUP             0 ****  ****    0  
     4 RES4      181 GROUP             0 ****  ****    0  
     5 RES5      241 GROUP             0 ****  ****    0  
     6 RES6      301 GROUP             0 ****  ****    0  
@<TRIPOS>CRYSIN
    6.0278   11.3730   17.5470   78.6000   83.4300   78.7300     2     1
